Circuit: * C:\Users\nx018023\OneDrive - Nexperia\Documents\GitHub\test_with_pyspice_ngspice\circuit_with_ccvs.asc

Direct Newton iteration for .op point succeeded.

Date: Thu Jan 20 22:43:28 2022
Total elapsed time: 0.068 seconds.

tnom = 27
temp = 27
method = trap
totiter = 3
traniter = 0
tranpoints = 0
accept = 0
rejected = 0
matrix size = 8
fillins = 1
solver = Alternate
Matrix Compiler1: 326 bytes object code size
Matrix Compiler2: 588 bytes object code size
