Circuit: * C:\Users\nx018023\OneDrive - Nexperia\Documents\GitHub\test_with_pyspice_ngspice\circuit_with_diode\circuit_with_diode.asc

.OP point found by inspection.

Date: Sun Jan 23 20:03:36 2022
Total elapsed time: 0.093 seconds.

tnom = 27
temp = 27
method = trap
totiter = 108
traniter = 0
tranpoints = 0
accept = 0
rejected = 0
matrix size = 5
fillins = 0
solver = Alternate
Matrix Compiler1:       9 opcodes  0.0/[0.0]/0.0
Matrix Compiler2: 363 bytes object code size  0.0/0.1/[0.0]

