Circuit: * C:\Users\nx018023\OneDrive - Nexperia\Documents\GitHub\test_with_pyspice_ngspice\simple_voltage_divider.asc

Direct Newton iteration for .op point succeeded.

Date: Sun Jan 23 18:07:23 2022
Total elapsed time: 0.066 seconds.

tnom = 27
temp = 27
method = trap
totiter = 3
traniter = 0
tranpoints = 0
accept = 0
rejected = 0
matrix size = 3
fillins = 0
solver = Alternate
Matrix Compiler1: 56 bytes object code size
Matrix Compiler2: 197 bytes object code size
