Circuit: * C:\Users\nx018023\OneDrive - Nexperia\Documents\GitHub\test_with_pyspice_ngspice\circuit_including_models_and_libraries\circuit_including_models_and_libraries.asc


Date: Mon Jan 24 19:57:59 2022
Total elapsed time: 0.059 seconds.

tnom = 27
temp = 27
method = trap
totiter = 1608
traniter = 0
tranpoints = 0
accept = 0
rejected = 0
matrix size = 4
fillins = 0
solver = Alternate
Matrix Compiler1: 162 bytes object code size  0.1/0.0/[0.0]
Matrix Compiler2: off  [0.1]/0.1/0.1

